# generated using pymatgen
data_H9C8NO2
_symmetry_space_group_name_H-M   P2_1/c
_cell_length_a   7.16142460
_cell_length_b   9.26560241
_cell_length_c   12.67716617
_cell_angle_alpha   90.00000000
_cell_angle_beta   116.34874858
_cell_angle_gamma   90.00000000
_symmetry_Int_Tables_number   14
_chemical_formula_structural   H9C8NO2
_chemical_formula_sum   'H36 C32 N4 O8'
_cell_volume   753.80006344
_cell_formula_units_Z   4
loop_
 _symmetry_equiv_pos_site_id
 _symmetry_equiv_pos_as_xyz
  1  'x, y, z'
  2  '-x, -y, -z'
  3  '-x, y+1/2, -z+1/2'
  4  'x, -y+1/2, z+1/2'
loop_
 _atom_site_type_symbol
 _atom_site_label
 _atom_site_symmetry_multiplicity
 _atom_site_fract_x
 _atom_site_fract_y
 _atom_site_fract_z
 _atom_site_occupancy
  H  H0  4  0.08698795  0.22858371  0.39602925  1
  H  H1  4  0.10539508  0.52842732  0.19129183  1
  H  H2  4  0.19554393  0.03012373  0.23420412  1
  H  H3  4  0.21224837  0.09923841  0.05802646  1
  H  H4  4  0.23735644  0.74066371  0.83363740  1
  H  H5  4  0.29284689  0.08876147  0.85006363  1
  H  H6  4  0.36141848  0.56909239  0.99484488  1
  H  H7  4  0.41979469  0.22084824  0.80524578  1
  H  H8  4  0.43300640  0.58539849  0.59848256  1
  C  C9  4  0.00470750  0.66532012  0.37612335  1
  C  C10  4  0.01402274  0.23148403  0.45470045  1
  C  C11  4  0.08643290  0.17158686  0.04719886  1
  C  C12  4  0.14961594  0.63789425  0.06371476  1
  C  C13  4  0.16607109  0.73960930  0.89317382  1
  C  C14  4  0.23747598  0.64166052  0.98550157  1
  C  C15  4  0.39919152  0.01722823  0.72242435  1
  C  C16  4  0.41870361  0.10675211  0.82563609  1
  N  N17  4  0.21212918  0.54327289  0.16013400  1
  O  O18  4  0.05597976  0.06978984  0.21319720  1
  O  O19  4  0.45389631  0.50223886  0.80239301  1
